*.include "C:\Users\kanan\Desktop\Comp Struct\50002\50002\nominal.jsim"
*.include "C:\Users\kanan\Desktop\Comp Struct\50002\50002\stdcell.jsim"
*.include "C:\Users\kanan\Desktop\Comp Struct\50002\50002\lab3boolean.jsim"

.subckt boole32 ALUFN[3:0] A[31:0] B[31:0] boole[31:0]
*Multiplexer
Xmux A[31:0] B[31:0] ALUFN0#32 ALUFN1#32 ALUFN2#32 ALUFN3#32 boole[31:0] mux4
.ends
